test/data/dist/3Bus_example_Curr_Elem.Txt

CIRCUIT ELEMENT CURRENTS

(Currents into element from indicated bus)

Power Delivery Elements

  Bus     Phase    Magnitude, A     Angle      (Real)   +j  (Imag)

ELEMENT = "Vsource.SOURCE"
SOURCEBUS     1           1381.7 /_  145.3 =    -1135.9 +j     786.6
SOURCEBUS     2           1381.7 /_   25.3 =     1249.2 +j    590.41
SOURCEBUS     3           1381.7 /_  -94.7 =    -113.27 +j     -1377
------------
SOURCEBUS     0           1381.7 /_  -34.7 =     1135.9 +j    -786.6
SOURCEBUS     0           1381.7 /_ -154.7 =    -1249.2 +j   -590.41
SOURCEBUS     0           1381.7 /_   85.3 =     113.27 +j      1377

ELEMENT = "Line.OHLINE"
SOURCEBUS     1           1381.7 /_  -34.7 =     1135.9 +j    -786.6
SOURCEBUS     2           1381.7 /_ -154.7 =    -1249.2 +j   -590.41
SOURCEBUS     3           1381.7 /_   85.3 =     113.27 +j      1377
------------
PRIMARY       1           1381.7 /_  145.3 =    -1135.9 +j     786.6
PRIMARY       2           1381.7 /_   25.3 =     1249.2 +j     590.4
PRIMARY       3           1381.7 /_  -94.7 =    -113.28 +j     -1377

ELEMENT = "Line.QUAD"
PRIMARY       1           1446.5 /_  -32.8 =     1215.2 +j   -784.57
PRIMARY       2           1446.5 /_ -152.8 =    -1287.1 +j   -660.15
PRIMARY       3           1446.5 /_   87.2 =     71.837 +j    1444.7
------------
LOADBUS       1           1446.5 /_  147.2 =    -1215.2 +j    784.57
LOADBUS       2           1446.5 /_   27.2 =     1287.1 +j    660.15
LOADBUS       3           1446.5 /_  -92.8 =    -71.838 +j   -1444.7

ELEMENT = "Line.PV_LINE"
PV_BUS        1           79.386 /_    1.5 =      79.36 +j    2.0335
PV_BUS        2           79.386 /_ -118.5 =    -37.919 +j   -69.744
PV_BUS        3           79.386 /_  121.5 =    -41.441 +j    67.711
------------
PRIMARY       1           79.386 /_ -178.5 =     -79.36 +j    -2.031
PRIMARY       2           79.386 /_   61.5 =     37.921 +j    69.743
PRIMARY       3           79.386 /_  -58.5 =     41.439 +j   -67.712

ELEMENT = "Fault.TEST"
LOADBUS       1           1446.5 /_  -32.8 =     1215.2 +j   -784.57
LOADBUS       2           1446.5 /_ -152.8 =    -1287.1 +j   -660.15
LOADBUS       3           1446.5 /_   87.2 =     71.838 +j    1444.7
------------
LOADBUS       0           1446.5 /_  147.2 =    -1215.2 +j    784.57
LOADBUS       0           1446.5 /_   27.2 =     1287.1 +j    660.15
LOADBUS       0           1446.5 /_  -92.8 =    -71.838 +j   -1444.7

= = = = = = = = = = = = = = = = = = =  = = = = = = = = = = =  = =

Power Conversion Elements

  Bus     Phase    Magnitude, A     Angle      (Real)   +j  (Imag)

ELEMENT = "PVSystem.PV1"
PV_BUS        1           39.693 /_ -178.5 =     -39.68 +j   -1.0168
PV_BUS        2           39.693 /_   61.5 =     18.959 +j    34.872
PV_BUS        3           39.693 /_  -58.5 =      20.72 +j   -33.855
PV_BUS        0      2.6965E-008 /_ -178.5 =  -2.6956E-008 +j -6.9073E-010

ELEMENT = "PVSystem.PV2"
PV_BUS        1           39.693 /_ -178.5 =     -39.68 +j   -1.0168
PV_BUS        2           39.693 /_   61.5 =     18.959 +j    34.872
PV_BUS        3           39.693 /_  -58.5 =      20.72 +j   -33.855
PV_BUS        0      2.6965E-008 /_ -178.5 =  -2.6956E-008 +j -6.9073E-010

